test/data/enwl/networks/Network_14/Feeder_3/LineCode.txt
New LineCode.25_SAC_XC nphases=3 R1=1.2 X1=0.079 R0=1.3 X0=0.079 C1=0 C0=0 Units=km
New LineCode.2c_.007 nphases=3 R1=3.97 X1=0.099 R0=3.97 X0=0.099 C1=0 C0=0 Units=km
New LineCode.4c_.0225 nphases=3 R1=1.257 X1=0.086 R0=3.83 X0=0.102 C1=0 C0=0 Units=km
New LineCode.4c_.3_AS nphases=3 R1=0.106 X1=0.068 R0=0.379 X0=0.076 C1=0 C0=0 Units=km
New LineCode.4c_.5_SAC nphases=3 R1=0.097 X1=0.067 R0=0.337 X0=0.082 C1=0 C0=0 Units=km
